<?xml version="1.0" encoding="UTF-8"?>

<!-- generated on 2025-02-17 00:15:46 by Eclipse SUMO netconvert Version v1_22_0+0262-e3bdb137f41
<netconvertConfiguration xmlns:xsi="http://www.w3.org/2001/XMLSchema-instance" xsi:noNamespaceSchemaLocation="http://sumo.dlr.de/xsd/netconvertConfiguration.xsd">

    <input>
        <type-files value="/home/bmmliu/mobiverse/sumo/sumo/data/typemap/osmNetconvert.typ.xml"/>
        <osm-files value="westwood.osm"/>
    </input>

    <output>
        <output-file value="westwood.net.xml"/>
    </output>

    <projection>
        <proj.utm value="true"/>
    </projection>

    <processing>
        <geometry.remove value="true"/>
        <geometry.max-grade.fix value="true"/>
        <roundabouts.guess value="true"/>
    </processing>

    <tls_building>
        <tls.discard-simple value="true"/>
        <tls.join value="true"/>
        <tls.guess-signals value="true"/>
    </tls_building>

    <ramp_guessing>
        <ramps.guess value="true"/>
    </ramp_guessing>

    <edge_removal>
        <keep-edges.by-vclass value="passenger"/>
        <remove-edges.by-vclass value="rail,tram"/>
    </edge_removal>

    <junctions>
        <junctions.join value="true"/>
        <junctions.corner-detail value="5"/>
    </junctions>

    <pedestrian>
        <sidewalks.guess value="true"/>
        <crossings.guess value="true"/>
    </pedestrian>

    <report>
        <ignore-errors.edge-type value="true"/>
    </report>

</netconvertConfiguration>
-->

<net version="1.20" junctionCornerDetail="5" walkingareas="true" limitTurnSpeed="5.50" xmlns:xsi="http://www.w3.org/2001/XMLSchema-instance" xsi:noNamespaceSchemaLocation="http://sumo.dlr.de/xsd/net_file.xsd">

    <location netOffset="-365398.86,-3768588.46" convBoundary="0.00,0.00,2995.27,3060.50" origBoundary="-118.473407,34.025616,-118.416791,34.082241" projParameter="+proj=utm +zone=11 +ellps=WGS84 +datum=WGS84 +units=m +no_defs"/>

    <type id="highway.motorway" priority="14" numLanes="2" speed="39.44" allow="private emergency authority army vip passenger hov taxi bus coach delivery truck trailer motorcycle evehicle custom1 custom2" oneway="1"/>
    <type id="highway.motorway_link" priority="9" numLanes="1" speed="22.22" allow="private emergency authority army vip passenger hov taxi bus coach delivery truck trailer motorcycle evehicle custom1 custom2" oneway="1"/>
    <type id="highway.primary" priority="12" numLanes="2" speed="27.78" disallow="tram rail_urban rail rail_electric rail_fast ship container cable_car subway aircraft wheelchair scooter drone" oneway="0"/>
    <type id="highway.primary_link" priority="7" numLanes="1" speed="22.22" disallow="tram rail_urban rail rail_electric rail_fast ship container cable_car subway aircraft wheelchair scooter drone" oneway="0"/>
    <type id="highway.residential" priority="3" numLanes="1" speed="13.89" disallow="tram rail_urban rail rail_electric rail_fast ship container cable_car subway aircraft wheelchair scooter drone" oneway="0"/>
    <type id="highway.secondary" priority="11" numLanes="1" speed="27.78" disallow="tram rail_urban rail rail_electric rail_fast ship container cable_car subway aircraft wheelchair scooter drone" oneway="0"/>
    <type id="highway.tertiary" priority="10" numLanes="1" speed="22.22" disallow="tram rail_urban rail rail_electric rail_fast ship container cable_car subway aircraft wheelchair scooter drone" oneway="0"/>
    <type id="highway.unclassified" priority="4" numLanes="1" speed="13.89" disallow="tram rail_urban rail rail_electric rail_fast ship container cable_car subway aircraft wheelchair scooter drone" oneway="0"/>

    <edge id=":10143366228_0" function="internal">
        <lane id=":10143366228_0_0" index="0" disallow="tram rail_urban rail rail_electric rail_fast ship container cable_car subway aircraft wheelchair scooter drone" speed="3.65" length="4.67" shape="1552.06,1688.35 1552.86,1687.15 1553.66,1686.76 1554.46,1687.16 1555.26,1688.36"/>
    </edge>
    <edge id=":10722587666_0" function="internal">
        <lane id=":10722587666_0_0" index="0" disallow="pedestrian tram rail_urban rail rail_electric rail_fast ship container cable_car subway aircraft wheelchair scooter drone" speed="7.57" length="10.36" shape="1879.14,2701.45 1876.13,2700.26 1873.54,2699.94 1871.36,2700.48 1869.59,2701.90"/>
    </edge>
    <edge id=":10722587666_1" function="internal">
        <lane id=":10722587666_1_0" index="0" disallow="pedestrian tram rail_urban rail rail_electric rail_fast ship container cable_car subway aircraft wheelchair scooter drone" speed="7.84" length="15.82" shape="1879.14,2701.45 1875.47,2698.88 1873.80,2695.88 1874.12,2692.47 1876.43,2688.63"/>
    </edge>
    <edge id=":10722587666_2" function="internal">
        <lane id=":10722587666_2_0" index="0" disallow="pedestrian tram rail_urban rail rail_electric rail_fast ship container cable_car subway aircraft wheelchair scooter drone" speed="3.65" length="4.67" shape="1879.14,2701.45 1878.43,2700.20 1878.43,2699.30 1879.15,2698.77 1880.59,2698.60"/>
    </edge>
    <edge id=":10722587666_3" function="internal">
        <lane id=":10722587666_3_0" index="0" disallow="pedestrian tram rail_urban rail rail_electric rail_fast ship container cable_car subway aircraft wheelchair scooter drone" speed="6.30" length="9.80" shape="1878.91,2690.66 1877.48,2693.03 1877.28,2695.15 1878.32,2697.00 1880.59,2698.60"/>
    </edge>
    <edge id=":10722587666_4" function="internal">
        <lane id=":10722587666_4_0" index="0" disallow="pedestrian tram rail_urban rail rail_electric rail_fast ship container cable_car subway aircraft wheelchair scooter drone" speed="8.94" length="14.60" shape="1878.91,2690.66 1869.59,2701.90"/>
    </edge>
    <edge id=":10722587666_5" function="internal">
        <lane id=":10722587666_5_0" index="0" disallow="pedestrian tram rail_urban rail rail_electric rail_fast ship container cable_car subway aircraft wheelchair scooter drone" speed="3.65" length="4.67" shape="1878.91,2690.66 1877.53,2691.08 1876.66,2690.88 1876.29,2690.07 1876.43,2688.63"/>
    </edge>
    <edge id=":10722587666_6" function="internal">
        <lane id=":10722587666_6_0" index="0" disallow="pedestrian tram rail_urban rail rail_electric rail_fast ship container cable_car subway aircraft wheelchair scooter drone" speed="8.94" length="14.55" shape="1867.15,2699.84 1876.43,2688.63"/>
    </edge>
    <edge id=":10722587666_7" function="internal">
        <lane id=":10722587666_7_0" index="0" disallow="pedestrian tram rail_urban rail rail_electric rail_fast ship container cable_car subway aircraft wheelchair scooter drone" speed="8.91" length="14.68" shape="1867.15,2699.84 1869.77,2697.65 1872.89,2696.71 1876.49,2697.03 1880.59,2698.60"/>
    </edge>
    <edge id=":10722587666_8" function="internal">
        <lane id=":10722587666_8_0" index="0" disallow="pedestrian tram rail_urban rail rail_electric rail_fast ship container cable_car subway aircraft wheelchair scooter drone" speed="3.65" length="4.67" shape="1867.15,2699.84 1868.53,2699.44 1869.40,2699.65 1869.76,2700.47 1869.59,2701.90"/>
    </edge>
    <edge id=":10722587666_c0" function="crossing" crossingEdges="-1082001508#1 1082001508#0">
        <lane id=":10722587666_c0_0" index="0" allow="pedestrian" speed="2.78" length="6.40" width="4.00" shape="1879.53,2696.27 1876.63,2701.97" outlineShape="1881.31,2697.17 1878.41,2702.88 1876.73,2702.14 1875.22,2701.69 1874.56,2701.62 1874.85,2701.07 1877.74,2695.36 1879.05,2693.73 1879.02,2693.83 1879.02,2694.78 1879.40,2695.66 1880.17,2696.46"/>
    </edge>
    <edge id=":10722587666_c1" function="crossing" crossingEdges="44630147#0 -44630147#1">
        <lane id=":10722587666_c1_0" index="0" allow="pedestrian" speed="2.78" length="6.40" width="4.00" shape="1873.93,2689.17 1878.88,2693.22" outlineShape="1875.20,2687.62 1880.15,2691.67 1879.39,2692.79 1879.02,2693.83 1879.02,2694.78 1879.40,2695.66 1879.48,2695.74 1877.62,2694.77 1872.66,2690.72 1875.20,2687.62 1875.12,2687.56"/>
    </edge>
    <edge id=":10722587666_c2" function="crossing" crossingEdges="1152308347#0 -1152308347#2">
        <lane id=":10722587666_c2_0" index="0" allow="pedestrian" speed="2.78" length="6.40" width="4.00" shape="1872.11,2701.41 1867.21,2697.28" outlineShape="1870.81,2702.93 1865.92,2698.81 1868.50,2695.75 1875.72,2701.84 1875.22,2701.69 1873.87,2701.55 1872.69,2701.71 1871.67,2702.17"/>
    </edge>
    <edge id=":10722587666_w0" function="walkingarea">
        <lane id=":10722587666_w0_0" index="0" allow="pedestrian" speed="2.78" length="4.50" width="4.00" shape="1870.81,2702.93 1872.34,2704.23 1877.51,2704.66 1878.41,2702.88 1876.73,2702.14 1875.22,2701.69 1873.87,2701.55 1872.69,2701.71 1871.67,2702.17"/>
    </edge>
    <edge id=":10722587666_w1" function="walkingarea">
        <lane id=":10722587666_w1_0" index="0" allow="pedestrian" speed="2.78" length="3.34" width="4.00" shape="1881.31,2697.17 1882.22,2695.39 1881.70,2692.94 1880.15,2691.67 1879.39,2692.79 1879.02,2693.83 1879.02,2694.78 1879.40,2695.66 1880.17,2696.46"/>
    </edge>
    <edge id=":10722587666_w2" function="walkingarea">
        <lane id=":10722587666_w2_0" index="0" allow="pedestrian" speed="2.78" length="9.11" width="4.00" shape="1872.66,2690.72 1875.20,2687.62 1873.65,2686.35 1864.40,2697.52 1865.92,2698.81 1868.50,2695.75"/>
    </edge>
    <edge id=":10722642736_0" function="internal">
        <lane id=":10722642736_0_0" index="0" disallow="pedestrian tram rail_urban rail rail_electric rail_fast ship container cable_car subway aircraft wheelchair scooter drone" speed="6.65" length="11.63" shape="1283.69,2668.01 1281.79,2666.13 1279.59,2665.80 1277.09,2667.02 1274.29,2669.80"/>
    </edge>
    <edge id=":10722642736_1" function="internal">
        <lane id=":10722642736_1_0" index="0" disallow="pedestrian tram rail_urban rail rail_electric rail_fast ship container cable_car subway aircraft wheelchair scooter drone" speed="7.82" length="30.70" shape="1283.69,2668.01 1279.29,2661.75 1274.28,2655.78 1268.63,2650.54 1262.29,2646.45"/>
    </edge>
    <edge id=":10722642736_2" function="internal">
        <lane id=":10722642736_2_0" index="0" disallow="pedestrian tram rail_urban rail rail_electric rail_fast ship container cable_car subway aircraft wheelchair scooter drone" speed="3.66" length="1.46" shape="1283.69,2668.01 1283.50,2666.57"/>
    </edge>
    <edge id=":10722642736_9" function="internal">
        <lane id=":10722642736_9_0" index="0" disallow="pedestrian tram rail_urban rail rail_electric rail_fast ship container cable_car subway aircraft wheelchair scooter drone" speed="3.66" length="3.26" shape="1283.50,2666.57 1283.84,2665.74 1284.72,2665.51 1286.12,2665.89"/>
    </edge>
    <edge id=":10722642736_3" function="internal">
        <lane id=":10722642736_3_0" index="0" disallow="pedestrian tram rail_urban rail rail_electric rail_fast ship container cable_car subway aircraft wheelchair scooter drone" speed="7.82" length="31.29" shape="1264.32,2643.89 1270.73,2648.04 1276.52,2653.44 1281.66,2659.56 1286.12,2665.89"/>
    </edge>
    <edge id=":10722642736_4" function="internal">
        <lane id=":10722642736_4_0" index="0" disallow="pedestrian tram rail_urban rail rail_electric rail_fast ship container cable_car subway aircraft wheelchair scooter drone" speed="8.94" length="12.71" shape="1264.32,2643.89 1272.09,2649.05 1273.90,2651.92"/>
    </edge>
    <edge id=":10722642736_5" function="internal">
        <lane id=":10722642736_5_0" index="0" disallow="pedestrian tram rail_urban rail rail_electric rail_fast ship container cable_car subway aircraft wheelchair scooter drone" speed="3.68" length="1.47" shape="1264.32,2643.89 1264.77,2645.29"/>
    </edge>
    <edge id=":10722642736_10" function="internal">
        <lane id=":10722642736_10_0" index="0" disallow="pedestrian tram rail_urban rail rail_electric rail_fast ship container cable_car subway aircraft wheelchair scooter drone" speed="8.94" length="19.39" shape="1273.90,2651.92 1275.77,2654.89 1275.27,2661.59 1270.48,2669.38"/>
    </edge>
    <edge id=":10722642736_11" function="internal">
        <lane id=":10722642736_11_0" index="0" disallow="pedestrian tram rail_urban rail rail_electric rail_fast ship container cable_car subway aircraft wheelchair scooter drone" speed="3.68" length="3.30" shape="1264.77,2645.29 1264.59,2646.18 1263.76,2646.57 1262.29,2646.45"/>
    </edge>
    <edge id=":10722642736_6" function="internal">
        <lane id=":10722642736_6_0" index="0" disallow="pedestrian tram rail_urban rail rail_electric rail_fast ship container cable_car subway aircraft wheelchair scooter drone" speed="6.15" length="1.76" shape="1261.10,2654.29 1262.69,2653.53"/>
    </edge>
    <edge id=":10722642736_7" function="internal">
        <lane id=":10722642736_7_0" index="0" disallow="pedestrian tram rail_urban rail rail_electric rail_fast ship container cable_car subway aircraft wheelchair scooter drone" speed="7.82" length="23.83" shape="1262.16,2657.31 1269.24,2655.88 1275.60,2656.84 1281.23,2660.17 1283.59,2662.93"/>
    </edge>
    <edge id=":10722642736_8" function="internal">
        <lane id=":10722642736_8_0" index="0" disallow="pedestrian tram rail_urban rail rail_electric rail_fast ship container cable_car subway aircraft wheelchair scooter drone" speed="7.04" length="19.23" shape="1263.21,2660.33 1269.05,2658.89 1271.57,2659.86 1270.78,2663.22 1266.66,2668.97"/>
    </edge>
    <edge id=":10722642736_12" function="internal">
        <lane id=":10722642736_12_0" index="0" disallow="pedestrian tram rail_urban rail rail_electric rail_fast ship container cable_car subway aircraft wheelchair scooter drone" speed="6.15" length="10.85" shape="1262.69,2653.53 1264.88,2652.50 1266.34,2650.59 1265.48,2648.58 1262.29,2646.45"/>
    </edge>
    <edge id=":10722642736_13" function="internal">
        <lane id=":10722642736_13_0" index="0" disallow="pedestrian tram rail_urban rail rail_electric rail_fast ship container cable_car subway aircraft wheelchair scooter drone" speed="7.82" length="3.89" shape="1283.59,2662.93 1286.12,2665.89"/>
    </edge>
    <edge id=":10722642736_c0" function="crossing" crossingEdges="-30724919#4 30724919#0">
        <lane id=":10722642736_c0_0" index="0" allow="pedestrian" speed="2.78" length="6.42" width="4.00" shape="1286.36,2663.34 1281.26,2667.22" outlineShape="1287.57,2664.93 1282.47,2668.81 1281.52,2667.97 1280.57,2667.54 1279.49,2667.62 1278.95,2667.88 1280.05,2665.63 1285.15,2661.75 1285.35,2661.60"/>
    </edge>
    <edge id=":10722642736_c1" function="crossing" crossingEdges="810151348#0 -810151348#4">
        <lane id=":10722642736_c1_0" index="0" allow="pedestrian" speed="2.78" length="6.43" width="4.00" shape="1263.36,2648.77 1266.83,2643.35" outlineShape="1261.67,2647.70 1265.14,2642.28 1269.55,2642.81 1266.42,2640.91 1265.52,2642.70 1265.14,2642.28 1268.51,2644.43 1265.04,2649.85 1263.50,2651.24 1263.99,2650.44 1263.83,2649.61 1263.03,2648.76"/>
    </edge>
    <edge id=":10722642736_w0" function="walkingarea">
        <lane id=":10722642736_w0_0" index="0" allow="pedestrian" speed="2.78" length="3.92" width="4.00" shape="1276.62,2669.50 1278.16,2670.78 1280.88,2670.29 1282.55,2669.19 1282.47,2668.81 1281.52,2667.97 1280.57,2667.54 1279.49,2667.62 1278.29,2668.19 1276.97,2669.26"/>
    </edge>
    <edge id=":10722642736_w1" function="walkingarea">
        <lane id=":10722642736_w1_0" index="0" allow="pedestrian" speed="2.78" length="20.42" width="4.00" shape="1287.57,2664.93 1288.94,2663.61 1285.98,2659.34 1282.64,2655.01 1278.97,2650.81 1275.01,2646.93 1270.81,2643.57 1266.42,2640.91 1266.42,2640.91 1265.52,2642.70 1265.14,2642.28 1271.03,2645.68 1275.23,2648.52 1278.31,2651.43 1280.93,2654.84 1283.76,2659.22"/>
    </edge>
    <edge id=":10722642736_w2" function="walkingarea">
        <lane id=":10722642736_w2_0" index="0" allow="pedestrian" speed="2.78" length="3.48" width="4.00" shape="1261.67,2647.70 1261.09,2647.63 1260.19,2649.42 1259.91,2650.89 1260.57,2652.78 1262.36,2652.02 1263.50,2651.24 1263.99,2650.44 1263.83,2649.61 1263.03,2648.76"/>
    </edge>
    <edge id=":10737249051_0" function="internal">
        <lane id=":10737249051_0_0" index="0" disallow="pedestrian tram rail_urban rail rail_electric rail_fast ship container cable_car subway aircraft wheelchair scooter drone" speed="8.94" length="8.21" shape="1216.96,1714.09 1216.65,1711.70 1216.07,1710.11 1215.48,1708.52 1215.17,1706.13"/>
        <lane id=":10737249051_0_1" index="1" disallow="pedestrian tram rail_urban rail rail_electric rail_fast ship container cable_car subway aircraft wheelchair scooter drone" speed="8.94" length="8.21" shape="1220.16,1714.02 1219.85,1711.63 1219.26,1710.04 1218.68,1708.45 1218.37,1706.05"/>
    </edge>
    <edge id=":10737249051_w0" function="walkingarea">
        <lane id=":10737249051_w0_0" index="0" allow="pedestrian" speed="2.78" length="8.15" width="2.00" shape="1213.57,1706.17 1211.57,1706.22 1210.16,1714.25 1212.16,1714.20 1212.24,1712.47 1212.51,1711.21 1212.87,1710.19 1213.23,1709.16 1213.49,1707.90"/>
    </edge>
    <edge id=":10737249055_0" function="internal">
        <lane id=":10737249055_0_0" index="0" disallow="pedestrian tram rail_urban rail rail_electric rail_fast ship container cable_car subway aircraft wheelchair scooter drone" speed="8.94" length="8.21" shape="1215.60,1724.58 1215.29,1722.19 1214.71,1720.60 1214.12,1719.01 1213.82,1716.62"/>
        <lane id=":10737249055_0_1" index="1" disallow="pedestrian tram rail_urban rail rail_electric rail_fast ship container cable_car subway aircraft wheelchair scooter drone" speed="8.94" length="8.21" shape="1218.80,1724.51 1218.49,1722.12 1217.91,1720.53 1217.32,1718.94 1217.01,1716.55"/>
        <lane id=":10737249055_0_2" index="2" disallow="pedestrian tram rail_urban rail rail_electric rail_fast ship container cable_car subway aircraft wheelchair scooter drone" speed="8.94" length="8.21" shape="1222.00,1724.43 1221.69,1722.04 1221.11,1720.45 1220.52,1718.87 1220.21,1716.48"/>
    </edge>
    <edge id=":10737249055_w0" function="walkingarea">
        <lane id=":10737249055_w0_0" index="0" allow="pedestrian" speed="2.78" length="8.16" width="2.00" shape="1212.22,1716.66 1210.22,1716.71 1210.14,1718.43 1209.87,1719.70 1209.51,1720.73 1209.15,1721.75 1208.88,1723.02 1208.80,1724.75 1210.80,1724.70 1210.88,1722.97 1211.15,1721.71 1211.51,1720.68 1211.87,1719.65 1212.14,1718.39"/>
    </edge>
    <edge id=":12193905757_0" function="internal">
        <lane id=":12193905757_0_0" index="0" disallow="tram rail_urban rail rail_electric rail_fast ship container cable_car subway aircraft wheelchair scooter drone" speed="15.65" length="8.81" shape="810.27,861.45 807.64,860.97 805.61,861.80 803.58,862.62 800.95,862.14"/>
        <lane id=":12193905757_0_1" index="1" disallow="tram rail_urban rail rail_electric rail_fast ship container cable_car subway aircraft wheelchair scooter drone" speed="15.65" length="8.81" shape="810.27,861.45 808.01,860.60 806.33,860.37 804.65,860.14 802.40,859.28"/>
        <lane id=":12193905757_0_2" index="2" disallow="tram rail_urban rail rail_electric rail_fast ship container cable_car subway aircraft wheelchair scooter drone" speed="15.65" length="8.81" shape="811.70,858.59 809.45,857.74 807.77,857.51 806.09,857.28 803.84,856.43"/>
        <lane id=":12193905757_0_3" index="3" disallow="tram rail_urban rail rail_electric rail_fast ship container cable_car subway aircraft wheelchair scooter drone" speed="15.65" length="8.81" shape="811.70,858.59 809.67,857.29 808.49,856.08 807.31,854.87 805.28,853.57"/>
        <lane id=":12193905757_0_4" index="4" disallow="tram rail_urban rail rail_electric rail_fast ship container cable_car subway aircraft wheelchair scooter drone" speed="15.65" length="8.81" shape="811.70,858.59 809.75,856.78 809.21,854.66 808.67,852.54 806.72,850.71"/>
    </edge>
    <edge id=":12193905757_w0" function="walkingarea">
        <lane id=":12193905757_w0_0" index="0" allow="pedestrian" speed="2.78" length="9.34" width="3.20" shape="809.55,862.88 812.42,857.16 810.20,854.66 809.93,853.23 809.66,851.80 808.97,850.45 807.45,849.28 800.23,863.57 803.57,863.86 804.89,863.23 806.20,862.60 807.70,862.35"/>
    </edge>
    <edge id=":122498065_0" function="internal">
        <lane id=":122498065_0_0" index="0" disallow="tram rail_urban rail rail_electric rail_fast ship container cable_car subway aircraft wheelchair scooter drone" speed="18.93" length="3.43" shape="431.14,626.52 430.21,626.09 429.56,625.84 428.88,625.67 427.88,625.49"/>
    </edge>
    <edge id=":122498065_1" function="internal">
        <lane id=":122498065_1_0" index="0" disallow="tram rail_urban rail rail_electric rail_fast ship container cable_car subway aircraft wheelchair scooter drone" speed="15.65" length="4.12" shape="432.50,623.62 431.47,623.15 430.76,622.84 430.03,622.57 428.97,622.19"/>
        <lane id=":122498065_1_1" index="1" disallow="tram rail_urban rail rail_electric rail_fast ship container cable_car subway aircraft wheelchair scooter drone" speed="15.65" length="4.12" shape="433.87,620.73 432.76,620.21 431.99,619.89 431.21,619.59 430.05,619.18"/>
        <lane id=":122498065_1_2" index="2" disallow="tram rail_urban rail rail_electric rail_fast ship container cable_car subway aircraft wheelchair scooter drone" speed="15.65" length="4.12" shape="435.24,617.84 434.05,617.28 433.22,616.93 432.38,616.61 431.14,616.17"/>
    </edge>
    <edge id=":122498065_w0" function="walkingarea">
        <lane id=":122498065_w0_0" index="0" allow="pedestrian" speed="2.78" length="3.91" width="3.20" shape="430.45,627.96 435.92,616.39 434.38,615.68 433.84,615.45 433.28,615.24 432.60,614.99 431.69,614.66 428.42,623.69 428.15,623.92 427.62,627.07 428.70,627.27 429.08,627.37 429.44,627.50 429.88,627.69"/>
    </edge>
    <edge id=":122568564_0" function="internal">
        <lane id=":122568564_0_0" index="0" disallow="pedestrian tram rail_urban rail rail_electric rail_fast ship container cable_car subway aircraft wheelchair scooter drone" speed="3.65" length="4.67" shape="2161.78,2996.23 2160.36,2996.52 2159.51,2996.24 2159.23,2995.40 2159.50,2993.98"/>
    </edge>
    <edge id=":122568564_w0" function="walkingarea">
        <lane id=":122568564_w0_0" index="0" allow="pedestrian" speed="2.78" length="8.40" width="2.00" shape="2158.37,2992.85 2156.95,2991.44 2164.33,2998.77 2162.91,2997.36"/>
    </edge>
    <edge id=":122579087_0" function="internal">
        <lane id=":122579087_0_0" index="0" disallow="pedestrian tram rail_urban rail rail_electric rail_fast ship container cable_car subway aircraft wheelchair scooter drone" speed="13.41" length="12.67" shape="1977.34,2515.70 1977.13,2512.01 1976.92,2509.48 1976.57,2506.97 1975.95,2503.32"/>
        <lane id=":122579087_0_1" index="1" disallow="pedestrian tram rail_urban rail rail_electric rail_fast ship container cable_car subway aircraft wheelchair scooter drone" speed="13.41" length="12.67" shape="1980.54,2515.53 1980.32,2511.72 1980.10,2509.12 1979.74,2506.53 1979.10,2502.77"/>
    </edge>
    <edge id=":122579087_2" function="internal">
        <lane id=":122579087_2_0" index="0" disallow="pedestrian tram rail_urban rail rail_electric rail_fast ship container cable_car subway aircraft wheelchair scooter drone" speed="8.65" length="3.50" shape="1980.54,2515.53 1981.03,2512.07"/>
    </edge>
    <edge id=":122579087_3" function="internal">
        <lane id=":122579087_3_0" index="0" disallow="pedestrian tram rail_urban rail rail_electric rail_fast ship container cable_car subway aircraft wheelchair scooter drone" speed="3.65" length="1.44" shape="1980.54,2515.53 1981.27,2514.29"/>
    </edge>
    <edge id=":122579087_11" function="internal">
        <lane id=":122579087_11_0" index="0" disallow="pedestrian tram rail_urban rail rail_electric rail_fast ship container cable_car subway aircraft wheelchair scooter drone" speed="8.65" length="12.63" shape="1981.03,2512.07 1981.06,2511.90 1983.07,2509.14 1986.56,2507.26 1991.53,2506.24"/>
    </edge>
    <edge id=":122579087_12" function="internal">
        <lane id=":122579087_12_0" index="0" disallow="pedestrian tram rail_urban rail rail_electric rail_fast ship container cable_car subway aircraft wheelchair scooter drone" speed="3.65" length="3.23" shape="1981.27,2514.29 1982.05,2513.85 1982.87,2514.20 1983.73,2515.36"/>
    </edge>
    <edge id=":122579087_4" function="internal">
        <lane id=":122579087_4_0" index="0" disallow="pedestrian tram rail_urban rail rail_electric rail_fast ship container cable_car subway aircraft wheelchair scooter drone" speed="6.46" length="8.57" shape="1991.86,2509.42 1989.60,2509.98 1988.02,2511.13 1987.13,2512.86 1986.93,2515.19"/>
    </edge>
    <edge id=":122579087_5" function="internal">
        <lane id=":122579087_5_0" index="0" disallow="pedestrian tram rail_urban rail rail_electric rail_fast ship container cable_car subway aircraft wheelchair scooter drone" speed="8.69" length="16.03" shape="1991.86,2509.42 1986.79,2509.44 1982.97,2508.34 1980.41,2506.12 1979.10,2502.77"/>
    </edge>
    <edge id=":122579087_6" function="internal">
        <lane id=":122579087_6_0" index="0" disallow="pedestrian tram rail_urban rail rail_electric rail_fast ship container cable_car subway aircraft wheelchair scooter drone" speed="3.65" length="4.67" shape="1991.86,2509.42 1990.58,2508.74 1990.11,2507.99 1990.42,2507.15 1991.53,2506.24"/>
    </edge>
    <edge id=":122579087_7" function="internal">
        <lane id=":122579087_7_0" index="0" disallow="pedestrian tram rail_urban rail rail_electric rail_fast ship container cable_car subway aircraft wheelchair scooter drone" speed="6.52" length="4.26" shape="1985.41,2501.68 1986.12,2503.87 1987.38,2505.36"/>
    </edge>
    <edge id=":122579087_8" function="internal">
        <lane id=":122579087_8_0" index="0" disallow="pedestrian tram rail_urban rail rail_electric rail_fast ship container cable_car subway aircraft wheelchair scooter drone" speed="13.41" length="13.42" shape="1985.41,2501.68 1986.08,2505.66 1986.46,2508.40 1986.70,2511.16 1986.93,2515.19"/>
        <lane id=":122579087_8_1" index="1" disallow="pedestrian tram rail_urban rail rail_electric rail_fast ship container cable_car subway aircraft wheelchair scooter drone" speed="13.41" length="13.42" shape="1982.25,2502.22 1982.91,2506.10 1983.28,2508.76 1983.51,2511.44 1983.73,2515.36"/>
    </edge>
    <edge id=":122579087_10" function="internal">
        <lane id=":122579087_10_0" index="0" disallow="pedestrian tram rail_urban rail rail_electric rail_fast ship container cable_car subway aircraft wheelchair scooter drone" speed="3.65" length="1.44" shape="1982.25,2502.22 1981.67,2503.54"/>
    </edge>
    <edge id=":122579087_13" function="internal">
        <lane id=":122579087_13_0" index="0" disallow="pedestrian tram rail_urban rail rail_electric rail_fast ship container cable_car subway aircraft wheelchair scooter drone" speed="6.52" length="4.32" shape="1987.38,2505.36 1989.18,2506.15 1991.53,2506.24"/>
    </edge>
    <edge id=":122579087_14" function="internal">
        <lane id=":122579087_14_0" index="0" disallow="pedestrian tram rail_urban rail rail_electric rail_fast ship container cable_car subway aircraft wheelchair scooter drone" speed="3.65" length="3.23" shape="1981.67,2503.54 1980.95,2504.07 1980.09,2503.82 1979.10,2502.77"/>
    </edge>
    <edge id=":122579087_c0" function="crossing" crossingEdges="-905743528#0 905743528#0">
        <lane id=":122579087_c0_0" index="0" allow="pedestrian" speed="2.78" length="12.80" width="4.00" shape="1988.42,2513.10 1975.63,2513.79" outlineShape="1988.52,2515.10 1975.74,2515.79 1975.64,2515.80 1975.74,2515.79 1975.60,2513.18 1975.51,2511.80 1988.31,2511.11 1990.49,2511.41 1989.99,2511.63 1989.30,2512.22 1988.82,2513.00 1988.57,2513.96"/>
    </edge>
    <edge id=":122579087_c1" function="crossing" crossingEdges="13281300#0 -13281300#0">
        <lane id=":122579087_c1_0" index="0" allow="pedestrian" speed="2.78" length="6.40" width="4.00" shape="1989.38,2504.85 1990.03,2511.21" outlineShape="1991.37,2504.64 1992.02,2511.01 1990.90,2511.23 1989.99,2511.63 1989.30,2512.22 1988.82,2513.00 1988.68,2513.52 1988.04,2511.42 1987.39,2505.05 1987.49,2502.90 1987.75,2503.37 1988.39,2504.03 1989.21,2504.45 1990.20,2504.66"/>
    </edge>
    <edge id=":122579087_c2" function="crossing" crossingEdges="905743528#1 607246666#2">
        <lane id=":122579087_c2_0" index="0" allow="pedestrian" speed="2.78" length="12.80" width="4.00" shape="1974.71,2505.56 1987.33,2503.38" outlineShape="1974.27,2503.61 1986.98,2501.40 1987.08,2501.39 1986.98,2501.40 1987.28,2502.50 1987.75,2503.37 1988.39,2504.03 1989.21,2504.45 1989.73,2504.56 1987.67,2505.35 1975.05,2507.53 1974.81,2506.17"/>
    </edge>
    <edge id=":122579087_w0" function="walkingarea">
        <lane id=":122579087_w0_0" index="0" allow="pedestrian" speed="2.78" length="7.58" width="4.00" shape="1974.37,2503.59 1972.40,2503.93 1973.75,2515.90 1975.74,2515.79 1975.60,2513.18 1975.47,2511.25 1975.33,2509.66 1975.12,2508.08 1974.81,2506.17"/>
    </edge>
    <edge id=":122579087_w1" function="walkingarea">
        <lane id=":122579087_w1_0" index="0" allow="pedestrian" speed="2.78" length="3.12" width="4.00" shape="1988.52,2515.10 1990.52,2514.99 1992.23,2513.00 1992.02,2511.01 1990.90,2511.23 1989.99,2511.63 1989.30,2512.22 1988.82,2513.00 1988.57,2513.96"/>
    </edge>
    <edge id=":122579087_w2" function="walkingarea">
        <lane id=":122579087_w2_0" index="0" allow="pedestrian" speed="2.78" length="3.15" width="4.00" shape="1991.37,2504.64 1991.17,2502.65 1988.95,2501.06 1986.98,2501.40 1987.28,2502.50 1987.75,2503.37 1988.39,2504.03 1989.21,2504.45 1990.20,2504.66"/>
    </edge>
    <edge id=":122579090_0" function="internal">