<?xml version="1.0" encoding="UTF-8"?>
<additional>
    <poi id="Sterling_Apartment" type="apartment" color="255,0,0" layer="10" lat="34.0610512" lon="-118.4366" name="Sterling Apartment" edge="-1298053180#5" width="5" height="5" />
    <poi id="Apartment_Parking" type="apartment" color="255,0,0" layer="10" lat="34.0611283" lon="-118.4361" name="Apartment Parking" edge="13453283#6" width="5" height="5" />
    <poi id="UCLA_Parking_Lot_2" type="school" color="255,0,0" layer="10" lat="34.0687150" lon="-118.4398" name="UCLA Parking Lot 2" edge="610339129#0" width="5" height="5" />
    <poi id="D_Stadium" type="stadium" color="255,0,0" layer="10" lat="34.072130" lon="-118.448427" name="D Stadium" edge="-55783710#3" width="5" height="5" />
    <poi id="Fenul_Construction_Company" type="office" color="255,0,0" layer="10" lat="34.0586716" lon="-118.4434" name="Fenul Construction Company" edge="398527922#0" width="5" height="5" />
    <poi id="CAVA" type="restaurant" color="255,0,0" layer="10" lat="34.0611701" lon="-118.4462" name="CAVA" edge="957690880#0" width="5" height="5" />
    <poi id="Lulu" type="restaurant" color="255,0,0" layer="10" lat="34.0596584" lon="-118.4435729" name="Lulu" edge="607194239#0" width="5" height="5" />
    <poi id="Junbi" type="cafe" color="0,255,0" layer="10" lat="34.0623536" lon="-118.4476285" name="Junbi" edge="603531529#5" width="5" height="5" />
    <poi id="Frida" type="restaurant" color="255,0,0" layer="10" lat="34.0602888" lon="-118.4426322" name="Frida" edge="-825533534#3" width="5" height="5" />
    <poi id="Tulsi" type="restaurant" color="255,0,0" layer="10" lat="34.0593306" lon="-118.445157" name="Tulsi" edge="-244373201#3" width="5" height="5" />
    <poi id="Ralphs" type="shopping" color="255,0,0" layer="10" lat="34.0633324" lon="-118.4439456" name="Ralphs" edge="-250080658#4" width="5" height="5" />
    <poi id="Subway" type="restaurant" color="255,0,0" layer="10" lat="34.0593432" lon="-118.44468" name="Subway" edge="763033284#0" width="5" height="5" />
    <poi id="Elysee" type="cafe" color="0,255,0" layer="10" lat="34.0602729" lon="-118.4467449" name="Elysee" edge="288116297#0" width="5" height="5" />
    <poi id="Subway_2" type="restaurant" color="255,0,0" layer="10" lat="34.0661453" lon="-118.446027" name="Subway (2)" edge="398421187" width="5" height="5" />
    <poi id="Attari" type="restaurant" color="255,0,0" layer="10" lat="34.0555915" lon="-118.4415056" name="Attari" edge="13359403#2" width="5" height="5" />
    <poi id="Fellow" type="restaurant" color="255,0,0" layer="10" lat="34.0611545" lon="-118.4445194" name="Fellow" edge="13377861#0" width="5" height="5" />
    <poi id="Alfred" type="cafe" color="0,255,0" layer="10" lat="34.0598357" lon="-118.4445342" name="Alfred" edge="44651956#0" width="5" height="5" />
    <poi id="Delphi" type="restaurant" color="255,0,0" layer="10" lat="34.0554994" lon="-118.4421153" name="Delphi" edge="398424184#0" width="5" height="5" />
    <poi id="Denny_s" type="restaurant" color="255,0,0" layer="10" lat="34.0602095" lon="-118.443093" name="Denny's" edge="-825533534#3" width="5" height="5" />
    <poi id="Rubio_s" type="restaurant" color="255,0,0" layer="10" lat="34.0701785" lon="-118.4442131" name="Rubio's" edge="607283986#2" width="5" height="5" />
    <poi id="Trimana" type="cafe" color="0,255,0" layer="10" lat="34.058313" lon="-118.444579" name="Trimana" edge="398529305#0" width="5" height="5" />
    <poi id="Pok__me" type="restaurant" color="255,0,0" layer="10" lat="34.0579278" lon="-118.443136" name="Poké me" edge="-398423167#1" width="5" height="5" />
    <poi id="Gogobop" type="restaurant" color="255,0,0" layer="10" lat="34.0614301" lon="-118.446433" name="Gogobop" edge="-288116297#7" width="5" height="5" />
    <poi id="Comoncy" type="cafe" color="0,255,0" layer="10" lat="34.0582289" lon="-118.44397" name="Comoncy" edge="763033297" width="5" height="5" />
    <poi id="Profeta" type="cafe" color="0,255,0" layer="10" lat="34.0603245" lon="-118.4441734" name="Profeta" edge="159608998#0" width="5" height="5" />
    <poi id="Plateia" type="restaurant" color="255,0,0" layer="10" lat="34.0695878" lon="-118.4455404" name="Plateia" edge="495920254#0" width="5" height="5" />
    <poi id="Dunkin_" type="restaurant" color="255,0,0" layer="10" lat="34.0617563" lon="-118.4480539" name="Dunkin'" edge="-603531527#1" width="5" height="5" />
    <poi id="Dipnmix" type="restaurant" color="255,0,0" layer="10" lat="34.0627257" lon="-118.4481083" name="Dipnmix" edge="132495023#0" width="5" height="5" />
    <poi id="poi_7_Eleven" type="restaurant" color="255,0,0" layer="10" lat="34.0627383" lon="-118.445605" name="7-Eleven" edge="1055030390#0" width="5" height="5" />
    <poi id="poi_7_Eleven_2" type="restaurant" color="255,0,0" layer="10" lat="34.0552912" lon="-118.4412964" name="7-Eleven (2)" edge="-13359403#5" width="5" height="5" />
    <poi id="Maharaja" type="restaurant" color="255,0,0" layer="10" lat="34.0564982" lon="-118.4427211" name="Maharaja" edge="398424182#0" width="5" height="5" />
    <poi id="Kreation" type="restaurant" color="255,0,0" layer="10" lat="34.0601117" lon="-118.4448196" name="Kreation" edge="44651956#0" width="5" height="5" />
    <poi id="Mr__Rice" type="restaurant" color="255,0,0" layer="10" lat="34.0622066" lon="-118.4466827" name="Mr. Rice" edge="-603531529#4" width="5" height="5" />
    <poi id="Egg_Tuck" type="restaurant" color="255,0,0" layer="10" lat="34.0610322" lon="-118.4474038" name="Egg Tuck" edge="288116297#0" width="5" height="5" />
    <poi id="Wildbird" type="restaurant" color="255,0,0" layer="10" lat="34.0596397" lon="-118.4452072" name="Wildbird" edge="244373201#0" width="5" height="5" />
    <poi id="Kazu_Nori" type="restaurant" color="255,0,0" layer="10" lat="34.0600264" lon="-118.446099" name="Kazu Nori" edge="-176996124#3" width="5" height="5" />
    <poi id="Taco_Bell" type="restaurant" color="255,0,0" layer="10" lat="34.0627296" lon="-118.4466237" name="Taco Bell" edge="603531529#0" width="5" height="5" />
    <poi id="Starbucks" type="cafe" color="0,255,0" layer="10" lat="34.0627064" lon="-118.443909" name="Starbucks" edge="610339130#0" width="5" height="5" />
    <poi id="Naab_Caf_" type="restaurant" color="255,0,0" layer="10" lat="34.0573233" lon="-118.4431997" name="Naab Café" edge="295003824#0" width="5" height="5" />
    <poi id="Tuck_Room" type="restaurant" color="255,0,0" layer="10" lat="34.0591898" lon="-118.4414282" name="Tuck Room" edge="398527669#0" width="5" height="5" />
    <poi id="Don_Huang" type="restaurant" color="255,0,0" layer="10" lat="34.0605621" lon="-118.446996" name="Don Huang" edge="288116297#0" width="5" height="5" />
    <poi id="ExtraMile" type="restaurant" color="255,0,0" layer="10" lat="34.0634437" lon="-118.4485622" name="ExtraMile" edge="-129555455#2" width="5" height="5" />
    <poi id="Pokitomik" type="restaurant" color="255,0,0" layer="10" lat="34.0599719" lon="-118.4452385" name="Pokitomik" edge="763033285#0" width="5" height="5" />
    <poi id="Bruin_Cafe" type="cafe" color="0,255,0" layer="10" lat="34.072565" lon="-118.4503114" name="Bruin Cafe" edge="55783710#0" width="5" height="5" />
    <poi id="Mr__Noodle" type="restaurant" color="255,0,0" layer="10" lat="34.0629463" lon="-118.4468728" name="Mr. Noodle" edge="-13442541#3" width="5" height="5" />
    <poi id="Lazy_Daisy" type="cafe" color="0,255,0" layer="10" lat="34.059985" lon="-118.446576" name="Lazy Daisy" edge="-176996126#3" width="5" height="5" />
    <poi id="Meet_Fresh" type="restaurant" color="255,0,0" layer="10" lat="34.0627154" lon="-118.446288" name="Meet Fresh" edge="603531529#0" width="5" height="5" />
    <poi id="Tacos_1986" type="restaurant" color="255,0,0" layer="10" lat="34.0606678" lon="-118.444693" name="Tacos 1986" edge="-13427908#3" width="5" height="5" />
    <poi id="Chick_fil_A" type="restaurant" color="255,0,0" layer="10" lat="34.0635256" lon="-118.4451155" name="Chick-fil-A" edge="398422367#0" width="5" height="5" />
    <poi id="Bruin_Plate" type="restaurant" color="255,0,0" layer="10" lat="34.0717871" lon="-118.449814" name="Bruin Plate" edge="55783710#0" width="5" height="5" />
    <poi id="Papa_John_s" type="restaurant" color="255,0,0" layer="10" lat="34.0568397" lon="-118.4429448" name="Papa John's" edge="-967757567#4" width="5" height="5" />
    <poi id="The_Broxton" type="restaurant" color="255,0,0" layer="10" lat="34.0610885" lon="-118.4456681" name="The Broxton" edge="957690880#0" width="5" height="5" />
    <poi id="Revive_Cafe" type="cafe" color="0,255,0" layer="10" lat="34.0647074" lon="-118.4424893" name="Revive Cafe" edge="-13386844#1" width="5" height="5" />
    <poi id="Upside_Down" type="cafe" color="0,255,0" layer="10" lat="34.0635118" lon="-118.4475263" name="Upside Down" edge="687655956#0" width="5" height="5" />
    <poi id="WeRoll_Nori" type="restaurant" color="255,0,0" layer="10" lat="34.063546" lon="-118.4457197" name="WeRoll Nori" edge="687655956#4" width="5" height="5" />
    <poi id="Trader_Joe_s" type="shopping" color="255,0,0" layer="10" lat="34.0621165" lon="-118.4439469" name="Trader Joe's" edge="-13377861#3" width="5" height="5" />
    <poi id="Cafe_Synapse" type="cafe" color="0,255,0" layer="10" lat="34.0671845" lon="-118.4446638" name="Cafe Synapse" edge="-229938447" width="5" height="5" />
    <poi id="Falafel_Inc_" type="restaurant" color="255,0,0" layer="10" lat="34.0629588" lon="-118.4472116" name="Falafel Inc." edge="13442541#0" width="5" height="5" />
    <poi id="Northern_Caf_" type="restaurant" color="255,0,0" layer="10" lat="34.0609314" lon="-118.4468744" name="Northern Café" edge="-288116297#7" width="5" height="5" />
    <poi id="Corner_Bakery" type="cafe" color="0,255,0" layer="10" lat="34.0621954" lon="-118.445595" name="Corner Bakery" edge="957690880#0" width="5" height="5" />
    <poi id="Pinches_Tacos" type="restaurant" color="255,0,0" layer="10" lat="34.0615811" lon="-118.4441104" name="Pinches Tacos" edge="-13377861#3" width="5" height="5" />
    <poi id="Tochal_Market" type="restaurant" color="255,0,0" layer="10" lat="34.0550033" lon="-118.4412803" name="Tochal Market" edge="-129553251#2" width="5" height="5" />
    <poi id="Rocco_s_Tavern" type="restaurant" color="255,0,0" layer="10" lat="34.0619255" lon="-118.4476983" name="Rocco's Tavern" edge="-288116297#7" width="5" height="5" />
    <poi id="Bluestone_Lane" type="cafe" color="0,255,0" layer="10" lat="34.0627171" lon="-118.444967" name="Bluestone Lane" edge="610339130#4" width="5" height="5" />
    <poi id="Dining_Commons" type="restaurant" color="255,0,0" layer="10" lat="34.066064" lon="-118.446567" name="Dining Commons" edge="-244371957#1" width="5" height="5" />
    <poi id="Tocaya_Organica" type="restaurant" color="255,0,0" layer="10" lat="34.0595383" lon="-118.4455872" name="Tocaya Organica" edge="244373201#0" width="5" height="5" />
    <poi id="Barney_s_Beanery" type="restaurant" color="255,0,0" layer="10" lat="34.0617224" lon="-118.4466561" name="Barney's Beanery" edge="-288116297#7" width="5" height="5" />
    <poi id="Prince_of_Venice" type="restaurant" color="255,0,0" layer="10" lat="34.0609153" lon="-118.445954" name="Prince of Venice" edge="763033288#0" width="5" height="5" />
    <poi id="Covel_Dining_Hall" type="restaurant" color="255,0,0" layer="10" lat="34.0729383" lon="-118.4500968" name="Covel Dining Hall" edge="55783710#0" width="5" height="5" />
    <poi id="North_Campus_Shop" type="cafe" color="0,255,0" layer="10" lat="34.0739067" lon="-118.4437391" name="North Campus Shop" edge="-30724919#4" width="5" height="5" />
    <poi id="Lu_Valle_Eateries" type="cafe" color="0,255,0" layer="10" lat="34.07356" lon="-118.4392304" name="Lu Valle Eateries" edge="-1152308347#2" width="5" height="5" />
    <poi id="Whole_Foods_Market" type="restaurant" color="255,0,0" layer="10" lat="34.0612088" lon="-118.447068" name="Whole Foods Market" edge="-288116297#7" width="5" height="5" />
    <poi id="De_Neve_Dining_Hall" type="restaurant" color="255,0,0" layer="10" lat="34.0704841" lon="-118.4502655" name="De Neve Dining Hall" edge="13398017#0" width="5" height="5" />
    <poi id="The_Study_at_Hedrick" type="restaurant" color="255,0,0" layer="10" lat="34.0731693" lon="-118.4523069" name="The Study at Hedrick" edge="55783709#0" width="5" height="5" />
    <poi id="Rendezvous_Restaurant" type="restaurant" color="255,0,0" layer="10" lat="34.0725866" lon="-118.4518668" name="Rendezvous Restaurant" edge="55783709#0" width="5" height="5" />
    <poi id="California_Pizza_Kitchen" type="restaurant" color="255,0,0" layer="10" lat="34.0622772" lon="-118.447144" name="California Pizza Kitchen" edge="-603531529#10" width="5" height="5" />
    <poi id="The_Coffee_Bean___Tea_Leaf" type="cafe" color="0,255,0" layer="10" lat="34.0702344" lon="-118.4385067" name="The Coffee Bean &amp; Tea Leaf" edge="197409448#0" width="5" height="5" />
    <poi id="Evelyn___Mo_Ostin_Music_Cafe" type="cafe" color="0,255,0" layer="10" lat="34.0702776" lon="-118.4405486" name="Evelyn &amp; Mo Ostin Music Cafe" edge="-860279679#3" width="5" height="5" />
</additional>